; Filename: data/Bangalore_WDS_with_heads.inp
; WNTR: 1.3.2
; Created: 2025-10-26 18:52:00
[TITLE]
Bangalore WDS - Realistic Simulation INP (auto-generated)

[JUNCTIONS]
;ID                      Elevation       Demand Pattern                 
 J1                                81    1.3065266898                            ;
 J2                                82   0.11352990741                            ;
 J3                                83    1.9705753356                            ;
 J4                                84    4.6953282755                            ;
 J5                                85    1.2508902315                            ;
 J6                                86   0.61841398148                            ;
 J7                                87    3.4744638079                            ;
 J8                                88    1.5528685532                            ;
 J9                                89    4.7821957755                            ;
 J10                               90   0.32883016204                            ;
 J11                               91   0.75296208333                            ;
 J12                               92    1.6262835069                            ;
 J13                               93   0.86620194444                            ;
 J14                               94    3.1621723843                            ;
 J15                               95    1.6870107407                            ;
 J16                               96    1.0965128588                            ;
 J17                               97    1.5075181019                            ;
 J18                               98    1.1602363194                            ;
 J19                               99   0.98584082176                            ;
 J20                              100   0.84395459491                            ;
 J21                              101     1.945341412                            ;
 J22                              102   0.92322731481                            ;
 J23                              103    2.2999967014                            ;
 J24                              104    2.7804597106                            ;
 J25                               80    1.4209597685                            ;
 J26                               81    3.0540831481                            ;
 J27                               82    3.3395789931                            ;
 J28                               83    2.1191400926                            ;
 J29                               84    1.5588626042                            ;
 J30                               85    1.6083883565                            ;
 J31                               86   0.67312197917                            ;
 J32                               87    1.3049144444                            ;
 J33                               88   0.69138736111                            ;
 J34                               89   0.55569171296                            ;
 J35                               90    0.9235133912                            ;
 J36                               91    1.0530728241                            ;
 J37                               92   0.71508777778                            ;
 J38                               93    1.5920785995                            ;
 J39                               94    1.6311414005                            ;
 J40                               95     -2.3148e-05                            ;
 J41                               96    2.2593428704                            ;
 J42                               97    1.2166391898                            ;
 J43                               98    1.7861737963                            ;
 J44                               99    1.4380477315                            ;
 J45                              100    1.2220075231                            ;
 J46                              101    2.0987321644                            ;
 J47                              102    0.9259487037                            ;
 J48                              103   0.42976631944                            ;
 J49                              104    1.1028784375                            ;
 J50                               80    4.2575294444                            ;
 J51                               81    1.5038759606                            ;
 J52                               82    1.9479384491                            ;
 J53                               83    2.1840846065                            ;
 J54                               84    3.6492696181                            ;
 J55                               85   0.94307792824                            ;
 J56                               86    2.6401353588                            ;
 J57                               87   0.94123383102                            ;
 J58                               88    1.7529910185                            ;
 J59                               89     1.866878206                            ;
 J60                               90    1.1384801852                            ;
 J61                               91   0.91893219907                            ;
 J62                               92   0.91146638889                            ;
 J63                               93    1.3884670486                            ;
 J64                               94    1.0671694213                            ;
 J65                               95    1.8230098843                            ;
 J66                               96    1.4031321759                            ;
 J67                               97    2.0386260417                            ;
 J68                               98    1.3861658449                            ;
 J69                               99      2.87061625                            ;
 J70                              100    2.3282912963                            ;
 J71                              101    2.7995065278                            ;
 J72                              102    2.3869317477                            ;
 J73                              103    2.3642543171                            ;
 J74                              104    1.8725648032                            ;
 J75                               80    1.7177743171                            ;
 J76                               81    1.3714413079                            ;
 J77                               82    1.3403745718                            ;
 J78                               83    1.3736724653                            ;
 J79                               84   0.92590920139                            ;
 J80                               85    1.7831145255                            ;
 J81                               86    2.3091759954                            ;
 J82                               87    2.1779264931                            ;
 J83                               88   0.53945572917                            ;
 J84                               89    1.4260985648                            ;
 J85                               90    5.0849861343                            ;
 J86                               91    1.8386183333                            ;
 J87                               92    1.0814339352                            ;
 J88                               93    1.7627982407                            ;
 J89                               94    1.4845079398                            ;
 J90                               95    3.7850238889                            ;
 J91                               96    1.1118141204                            ;
 J92                               97    2.4080157755                            ;
 J93                               98    2.9373392593                            ;
 J94                               99    4.4496465046                            ;
 J95                              100   0.69194122685                            ;
 J96                              101    1.5165926736                            ;
 J97                              102   0.98198584491                            ;
 J98                              103   0.95659287037                            ;
 J99                              104    1.3406547801                            ;
 J100                              80    1.9915571296                            ;
 J101                              81    1.1108767361                            ;
 J102                              82    1.1522196412                            ;
 J103                              83    1.2571734722                            ;
 J104                              84   0.78628244213                            ;
 J105                              85    1.0781332639                            ;
 J106                              86   0.99257686343                            ;
 J107                              87    1.0229245833                            ;
 J108                              88    1.3683003704                            ;
 J109                              89    1.3094827083                            ;
 J110                              90    1.5390666204                            ;
 J111                              91    2.7123269444                            ;
 J112                              92    2.2923778356                            ;
 J113                              93    1.5169296759                            ;
 J114                              94    1.8252747569                            ;
 J115                              95    1.2559260532                            ;
 J116                              96     0.731628125                            ;
 J117                              97    2.8512295949                            ;
 J118                              98    1.1915040509                            ;
 J119                              99    1.1555782523                            ;
 J120                             100   0.73674140046                            ;
 J121                             101    1.2177165856                            ;
 J122                             102    1.0189685069                            ;
 J123                             103    1.0829261227                            ;
 J124                             104     1.360356794                            ;
 J125                              80    1.0897547454                            ;
 J126                              81    1.1768034606                            ;
 J127                              82    1.5551355787                            ;
 J128                              83    3.0187539583                            ;
 J129                              84    3.8650180556                            ;
 J130                              85    2.2374519213                            ;
 J131                              86    1.4437469329                            ;
 J132                              87    2.0122190972                            ;
 J133                              88   0.97786940972                            ;
 J134                              89    1.5313871065                            ;
 J135                              90   0.84541568287                            ;
 J136                              91    1.5193362731                            ;
 J137                              92   0.94598261574                            ;
 J138                              93   0.64572744213                            ;
 J139                              94   0.62571790509                            ;
 J140                              95    1.9198642708                            ;
 J141                              96    1.2708764931                            ;
 J142                              97   0.76572653935                            ;
 J143                              98    1.4134279167                            ;
 J144                              99    1.4699302199                            ;
 J145                             100    2.3141741435                            ;
 J146                             101     1.107505544                            ;
 J147                             102     1.252370162                            ;
 J148                             103    1.6049609722                            ;
 J149                             104    1.9376723032                            ;
 J150                              80    3.8763527431                            ;
 J151                              81    3.3589608449                            ;
 J152                              82    1.6700532523                            ;
 J153                              83     2.065004919                            ;
 J154                              84    1.5918310764                            ;
 J155                              85    1.0270805787                            ;
 J156                              86     1.662925463                            ;
 J157                              87    1.6072534722                            ;
 J158                              88   0.89244079861                            ;
 J159                              89    3.3579085301                            ;
 J160                              90    5.2634425347                            ;
 J161                              91    1.9558415046                            ;
 J162                              92    2.2233297106                            ;
 J163                              93    1.6955521759                            ;
 J164                              94    1.2501927083                            ;
 J165                              95    1.2896018056                            ;
 J166                              96    1.4020559838                            ;
 J167                              97    1.2519739583                            ;
 J168                              98    1.7543207176                            ;
 J169                              99    1.3566271528                            ;
 J170                             100    1.2140591319                            ;
 J171                             101    2.1463277894                            ;
 J172                             102     2.004451331                            ;
 J173                             103    1.4586777662                            ;
 J174                             104    6.6223026505                            ;
 J175                              80     3.444383831                            ;
 J176                              81    2.9908499421                            ;
 J177                              82     2.044671169                            ;
 J178                              83    2.0503880903                            ;
 J179                              84      1.31016875                            ;
 J180                              85    1.3917555556                            ;
 J181                              86     3.116581331                            ;
 J182                              87      2.13291375                            ;
 J183                              88    1.5323240394                            ;
 J184                              89    3.7901948727                            ;
 J185                              90    2.2989438773                            ;
 J186                              91   0.97042626157                            ;
 J187                              92    1.7956226852                            ;
 J188                              93    2.9409355903                            ;
 J189                              94    4.0842692361                            ;
 J190                              95    1.0590380556                            ;
 J191                              96    2.0113070718                            ;
 J192                              97    3.6666312847                            ;
 J193                              98    4.2012094907                            ;
 J194                              99    1.1498026042                            ;
 J195                             100    3.4580855093                            ;
 J196                             101    3.2996971644                            ;
 J197                             102    1.7710640394                            ;
 J198                             103    1.1110404282                            ;

[RESERVOIRS]
;ID                                   Head                  Pattern
 Reservoir1                       850                            ;
 Reservoir2                       830                            ;
 Reservoir3                       810                            ;
 Borewell1                        800                            ;
 Borewell2                        795                            ;

[TANKS]
;ID                              Elevation           Init Level            Min Level            Max Level             Diameter           Min Volume Volume Curve         Overflow            

[PIPES]
;ID                   Node1                Node2                              Length             Diameter            Roughness           Minor Loss               Status
 P_Reservoir1_J1      Reservoir1           J1                               415             200             100               0                 Open   ;
 P_Reservoir2_J2      Reservoir2           J2                               491             800             100               0                 Open   ;
 P_Reservoir3_J3      Reservoir3           J3                              1195            1000             100               0                 Open   ;
 P_Borewell1_J4       Borewell1            J4                               536             200             100               0                 Open   ;
 P_Borewell2_J5       Borewell2            J5                              2282            1000             100               0                 Open   ;
 P_Reservoir1_J6      Reservoir1           J6                               383             600             100               0                 Open   ;
 P_Reservoir2_J7      Reservoir2           J7                              1479             600             100               0                 Open   ;
 P_Reservoir3_J8      Reservoir3           J8                              1030             200             100               0                 Open   ;
 P_Borewell1_J9       Borewell1            J9                              2174            1000             100               0                 Open   ;
 P_Borewell2_J10      Borewell2            J10                              651             600             100               0                 Open   ;
 P_Reservoir1_J11     Reservoir1           J11                             1041            1500             100               0                 Open   ;
 P_Reservoir2_J12     Reservoir2           J12                             1034             400             100               0                 Open   ;
 P_Reservoir3_J13     Reservoir3           J13                              839             300             100               0                 Open   ;
 P_Borewell1_J14      Borewell1            J14                              303            1500             100               0                 Open   ;
 P_Borewell2_J15      Borewell2            J15                             1259             800             100               0                 Open   ;
 P_Reservoir1_J16     Reservoir1           J16                              492             300             100               0                 Open   ;
 P_Reservoir2_J17     Reservoir2           J17                             1614             200             100               0                 Open   ;
 P_Reservoir3_J18     Reservoir3           J18                              453             400             100               0                 Open   ;
 P_Borewell1_J19      Borewell1            J19                              994             300             100               0                 Open   ;
 P_Borewell2_J20      Borewell2            J20                             1286             300             100               0                 Open   ;
 P_Reservoir1_J21     Reservoir1           J21                             2291            1200             100               0                 Open   ;
 P_Reservoir2_J22     Reservoir2           J22                              504             200             100               0                 Open   ;
 P_Reservoir3_J23     Reservoir3           J23                              612             200             100               0                 Open   ;
 P_Borewell1_J24      Borewell1            J24                             2038             600             100               0                 Open   ;
 P_Borewell2_J25      Borewell2            J25                              346             300             100               0                 Open   ;
 P_Reservoir1_J26     Reservoir1           J26                             2304             500             100               0                 Open   ;
 P_Reservoir2_J27     Reservoir2           J27                             1561             400             100               0                 Open   ;
 P_Reservoir3_J28     Reservoir3           J28                              883            1500             100               0                 Open   ;
 P_Borewell1_J29      Borewell1            J29                             2143             400             100               0                 Open   ;
 P_Borewell2_J30      Borewell2            J30                             1991             400             100               0                 Open   ;
 P_Reservoir1_J31     Reservoir1           J31                             1055             300             100               0                 Open   ;
 P_Reservoir2_J32     Reservoir2           J32                             2063             800             100               0                 Open   ;
 P_Reservoir3_J33     Reservoir3           J33                              755             500             100               0                 Open   ;
 P_Borewell1_J34      Borewell1            J34                             1639             400             100               0                 Open   ;
 P_Borewell2_J35      Borewell2            J35                             1459             800             100               0                 Open   ;
 P_Reservoir1_J36     Reservoir1           J36                             2080             300             100               0                 Open   ;
 P_Reservoir2_J37     Reservoir2           J37                              993             300             100               0                 Open   ;
 P_Reservoir3_J38     Reservoir3           J38                             1176            1000             100               0                 Open   ;
 P_Borewell1_J39      Borewell1            J39                             1992             500             100               0                 Open   ;
 P_Borewell2_J40      Borewell2            J40                             1428            1200             100               0                 Open   ;
 P_Reservoir1_J41     Reservoir1           J41                             1806             500             100               0                 Open   ;
 P_Reservoir2_J42     Reservoir2           J42                             1704            1500             100               0                 Open   ;
 P_Reservoir3_J43     Reservoir3           J43                             1766             800             100               0                 Open   ;
 P_Borewell1_J44      Borewell1            J44                             2258             200             100               0                 Open   ;
 P_Borewell2_J45      Borewell2            J45                             1369            1000             100               0                 Open   ;
 P_Reservoir1_J46     Reservoir1           J46                             1770             300             100               0                 Open   ;
 P_Reservoir2_J47     Reservoir2           J47                             1123             400             100               0                 Open   ;
 P_Reservoir3_J48     Reservoir3           J48                              370             200             100               0                 Open   ;
 P_Borewell1_J49      Borewell1            J49                             1959             200             100               0                 Open   ;
 P_Borewell2_J50      Borewell2            J50                              699            1000             100               0                 Open   ;
 P_Reservoir1_J51     Reservoir1           J51                             2104             800             100               0                 Open   ;
 P_Reservoir2_J52     Reservoir2           J52                             2310             800             100               0                 Open   ;
 P_Reservoir3_J53     Reservoir3           J53                             1747             300             100               0                 Open   ;
 P_Borewell1_J54      Borewell1            J54                              674             300             100               0                 Open   ;
 P_Borewell2_J55      Borewell2            J55                             1041             600             100               0                 Open   ;
 P_Reservoir1_J56     Reservoir1           J56                             1160             300             100               0                 Open   ;
 P_Reservoir2_J57     Reservoir2           J57                              461             500             100               0                 Open   ;
 P_Reservoir3_J58     Reservoir3           J58                             1304             600             100               0                 Open   ;
 P_Borewell1_J59      Borewell1            J59                             1560            1500             100               0                 Open   ;
 P_Borewell2_J60      Borewell2            J60                             1039            1000             100               0                 Open   ;
 P_Reservoir1_J61     Reservoir1           J61                              715             300             100               0                 Open   ;
 P_Reservoir2_J62     Reservoir2           J62                              493            1200             100               0                 Open   ;
 P_Reservoir3_J63     Reservoir3           J63                             1682             400             100               0                 Open   ;
 P_Borewell1_J64      Borewell1            J64                              328            1500             100               0                 Open   ;
 P_Borewell2_J65      Borewell2            J65                             1074             300             100               0                 Open   ;
 P_Reservoir1_J66     Reservoir1           J66                              804            1200             100               0                 Open   ;
 P_Reservoir2_J67     Reservoir2           J67                             1470             200             100               0                 Open   ;
 P_Reservoir3_J68     Reservoir3           J68                             1892             500             100               0                 Open   ;
 P_Borewell1_J69      Borewell1            J69                             2300            1500             100               0                 Open   ;
 P_Borewell2_J70      Borewell2            J70                             1705             300             100               0                 Open   ;
 P_Reservoir1_J71     Reservoir1           J71                             2481             200             100               0                 Open   ;
 P_Reservoir2_J72     Reservoir2           J72                             2420            1500             100               0                 Open   ;
 P_Reservoir3_J73     Reservoir3           J73                             1685             400             100               0                 Open   ;
 P_Borewell1_J74      Borewell1            J74                              813             400             100               0                 Open   ;
 P_Borewell2_J75      Borewell2            J75                             1364             800             100               0                 Open   ;
 P_Reservoir1_J76     Reservoir1           J76                              690             800             100               0                 Open   ;
 P_Reservoir2_J77     Reservoir2           J77                             2482             200             100               0                 Open   ;
 P_Reservoir3_J78     Reservoir3           J78                             1277            1000             100               0                 Open   ;
 P_Borewell1_J79      Borewell1            J79                             1953             300             100               0                 Open   ;
 P_Borewell2_J80      Borewell2            J80                              397             200             100               0                 Open   ;
 P_Reservoir1_J81     Reservoir1           J81                              596             200             100               0                 Open   ;