; Filename: data\Bangalore_WDS_Realistic.inp
; WNTR: 1.3.2
; Created: 2025-10-15 13:22:30
[TITLE]
Bangalore WDS - Realistic Simulation INP (auto-generated)

[JUNCTIONS]
;ID                      Elevation       Demand Pattern                 
 J1                                81    1306.5266898                            ;
 J2                                82    113.52990741                            ;
 J3                                83    1970.5753356                            ;
 J4                                84    4695.3282755                            ;
 J5                                85    1250.8902315                            ;
 J6                                86    618.41398148                            ;
 J7                                87    3474.4638079                            ;
 J8                                88    1552.8685532                            ;
 J9                                89    4782.1957755                            ;
 J10                               90    328.83016204                            ;
 J11                               91    752.96208333                            ;
 J12                               92    1626.2835069                            ;
 J13                               93    866.20194444                            ;
 J14                               94    3162.1723843                            ;
 J15                               95    1687.0107407                            ;
 J16                               96    1096.5128588                            ;
 J17                               97    1507.5181019                            ;
 J18                               98    1160.2363194                            ;
 J19                               99    985.84082176                            ;
 J20                              100    843.95459491                            ;
 J21                              101     1945.341412                            ;
 J22                              102    923.22731481                            ;
 J23                              103    2299.9967014                            ;
 J24                              104    2780.4597106                            ;
 J25                               80    1420.9597685                            ;
 J26                               81    3054.0831481                            ;
 J27                               82    3339.5789931                            ;
 J28                               83    2119.1400926                            ;
 J29                               84    1558.8626042                            ;
 J30                               85    1608.3883565                            ;
 J31                               86    673.12197917                            ;
 J32                               87    1304.9144444                            ;
 J33                               88    691.38736111                            ;
 J34                               89    555.69171296                            ;
 J35                               90     923.5133912                            ;
 J36                               91    1053.0728241                            ;
 J37                               92    715.08777778                            ;
 J38                               93    1592.0785995                            ;
 J39                               94    1631.1414005                            ;
 J40                               95     -2.3148e-05                            ;
 J41                               96    2259.3428704                            ;
 J42                               97    1216.6391898                            ;
 J43                               98    1786.1737963                            ;
 J44                               99    1438.0477315                            ;
 J45                              100    1222.0075231                            ;
 J46                              101    2098.7321644                            ;
 J47                              102     925.9487037                            ;
 J48                              103    429.76631944                            ;
 J49                              104    1102.8784375                            ;
 J50                               80    4257.5294444                            ;
 J51                               81    1503.8759606                            ;
 J52                               82    1947.9384491                            ;
 J53                               83    2184.0846065                            ;
 J54                               84    3649.2696181                            ;
 J55                               85    943.07792824                            ;
 J56                               86    2640.1353588                            ;
 J57                               87    941.23383102                            ;
 J58                               88    1752.9910185                            ;
 J59                               89     1866.878206                            ;
 J60                               90    1138.4801852                            ;
 J61                               91    918.93219907                            ;
 J62                               92    911.46638889                            ;
 J63                               93    1388.4670486                            ;
 J64                               94    1067.1694213                            ;
 J65                               95    1823.0098843                            ;
 J66                               96    1403.1321759                            ;
 J67                               97    2038.6260417                            ;
 J68                               98    1386.1658449                            ;
 J69                               99      2870.61625                            ;
 J70                              100    2328.2912963                            ;
 J71                              101    2799.5065278                            ;
 J72                              102    2386.9317477                            ;
 J73                              103    2364.2543171                            ;
 J74                              104    1872.5648032                            ;
 J75                               80    1717.7743171                            ;
 J76                               81    1371.4413079                            ;
 J77                               82    1340.3745718                            ;
 J78                               83    1373.6724653                            ;
 J79                               84    925.90920139                            ;
 J80                               85    1783.1145255                            ;
 J81                               86    2309.1759954                            ;
 J82                               87    2177.9264931                            ;
 J83                               88    539.45572917                            ;
 J84                               89    1426.0985648                            ;
 J85                               90    5084.9861343                            ;
 J86                               91    1838.6183333                            ;
 J87                               92    1081.4339352                            ;
 J88                               93    1762.7982407                            ;
 J89                               94    1484.5079398                            ;
 J90                               95    3785.0238889                            ;
 J91                               96    1111.8141204                            ;
 J92                               97    2408.0157755                            ;
 J93                               98    2937.3392593                            ;
 J94                               99    4449.6465046                            ;
 J95                              100    691.94122685                            ;
 J96                              101    1516.5926736                            ;
 J97                              102    981.98584491                            ;
 J98                              103    956.59287037                            ;
 J99                              104    1340.6547801                            ;
 J100                              80    1991.5571296                            ;
 J101                              81    1110.8767361                            ;
 J102                              82    1152.2196412                            ;
 J103                              83    1257.1734722                            ;
 J104                              84    786.28244213                            ;
 J105                              85    1078.1332639                            ;
 J106                              86    992.57686343                            ;
 J107                              87    1022.9245833                            ;
 J108                              88    1368.3003704                            ;
 J109                              89    1309.4827083                            ;
 J110                              90    1539.0666204                            ;
 J111                              91    2712.3269444                            ;
 J112                              92    2292.3778356                            ;
 J113                              93    1516.9296759                            ;
 J114                              94    1825.2747569                            ;
 J115                              95    1255.9260532                            ;
 J116                              96      731.628125                            ;
 J117                              97    2851.2295949                            ;
 J118                              98    1191.5040509                            ;
 J119                              99    1155.5782523                            ;
 J120                             100    736.74140046                            ;
 J121                             101    1217.7165856                            ;
 J122                             102    1018.9685069                            ;
 J123                             103    1082.9261227                            ;
 J124                             104     1360.356794                            ;
 J125                              80    1089.7547454                            ;
 J126                              81    1176.8034606                            ;
 J127                              82    1555.1355787                            ;
 J128                              83    3018.7539583                            ;
 J129                              84    3865.0180556                            ;
 J130                              85    2237.4519213                            ;
 J131                              86    1443.7469329                            ;
 J132                              87    2012.2190972                            ;
 J133                              88    977.86940972                            ;
 J134                              89    1531.3871065                            ;
 J135                              90    845.41568287                            ;
 J136                              91    1519.3362731                            ;
 J137                              92    945.98261574                            ;
 J138                              93    645.72744213                            ;
 J139                              94    625.71790509                            ;
 J140                              95    1919.8642708                            ;
 J141                              96    1270.8764931                            ;
 J142                              97    765.72653935                            ;
 J143                              98    1413.4279167                            ;
 J144                              99    1469.9302199                            ;
 J145                             100    2314.1741435                            ;
 J146                             101     1107.505544                            ;
 J147                             102     1252.370162                            ;
 J148                             103    1604.9609722                            ;
 J149                             104    1937.6723032                            ;
 J150                              80    3876.3527431                            ;
 J151                              81    3358.9608449                            ;
 J152                              82    1670.0532523                            ;
 J153                              83     2065.004919                            ;
 J154                              84    1591.8310764                            ;
 J155                              85    1027.0805787                            ;
 J156                              86     1662.925463                            ;
 J157                              87    1607.2534722                            ;
 J158                              88    892.44079861                            ;
 J159                              89    3357.9085301                            ;
 J160                              90    5263.4425347                            ;
 J161                              91    1955.8415046                            ;
 J162                              92    2223.3297106                            ;
 J163                              93    1695.5521759                            ;
 J164                              94    1250.1927083                            ;
 J165                              95    1289.6018056                            ;
 J166                              96    1402.0559838                            ;
 J167                              97    1251.9739583                            ;
 J168                              98    1754.3207176                            ;
 J169                              99    1356.6271528                            ;
 J170                             100    1214.0591319                            ;
 J171                             101    2146.3277894                            ;
 J172                             102     2004.451331                            ;
 J173                             103    1458.6777662                            ;
 J174                             104    6622.3026505                            ;
 J175                              80     3444.383831                            ;
 J176                              81    2990.8499421                            ;
 J177                              82     2044.671169                            ;
 J178                              83    2050.3880903                            ;
 J179                              84      1310.16875                            ;
 J180                              85    1391.7555556                            ;
 J181                              86     3116.581331                            ;
 J182                              87      2132.91375                            ;
 J183                              88    1532.3240394                            ;
 J184                              89    3790.1948727                            ;
 J185                              90    2298.9438773                            ;
 J186                              91    970.42626157                            ;
 J187                              92    1795.6226852                            ;
 J188                              93    2940.9355903                            ;
 J189                              94    4084.2692361                            ;
 J190                              95    1059.0380556                            ;
 J191                              96    2011.3070718                            ;
 J192                              97    3666.6312847                            ;
 J193                              98    4201.2094907                            ;
 J194                              99    1149.8026042                            ;
 J195                             100    3458.0855093                            ;
 J196                             101    3299.6971644                            ;
 J197                             102    1771.0640394                            ;
 J198                             103    1111.0404282                            ;

[RESERVOIRS]
;ID                                   Head                  Pattern
 Reservoir1              121.000000                            ;

 Reservoir2              122.000000                            ;

 Reservoir3              123.000000                            ;

 Borewell1               124.000000                            ;

 Borewell2               125.000000                            ;


[TANKS]
;ID                              Elevation           Init Level            Min Level            Max Level             Diameter           Min Volume Volume Curve         Overflow            

[PIPES]
;ID                   Node1                Node2                              Length             Diameter            Roughness           Minor Loss               Status
 P_Reservoir1_J1      Reservoir1           J1                               415             200             100               0                 Open   ;
 P_Reservoir2_J2      Reservoir2           J2                               491             800             100               0                 Open   ;
 P_Reservoir3_J3      Reservoir3           J3                              1195            1000             100               0                 Open   ;
 P_Borewell1_J4       Borewell1            J4                               536             200             100               0                 Open   ;
 P_Borewell2_J5       Borewell2            J5                              2282            1000             100               0                 Open   ;
 P_Reservoir1_J6      Reservoir1           J6                               383             600             100               0                 Open   ;
 P_Reservoir2_J7      Reservoir2           J7                              1479             600             100               0                 Open   ;
 P_Reservoir3_J8      Reservoir3           J8                              1030             200             100               0                 Open   ;
 P_Borewell1_J9       Borewell1            J9                              2174            1000             100               0                 Open   ;
 P_Borewell2_J10      Borewell2            J10                              651             600             100               0                 Open   ;
 P_Reservoir1_J11     Reservoir1           J11                             1041            1500             100               0                 Open   ;
 P_Reservoir2_J12     Reservoir2           J12                             1034             400             100               0                 Open   ;
 P_Reservoir3_J13     Reservoir3           J13                              839             300             100               0                 Open   ;
 P_Borewell1_J14      Borewell1            J14                              303            1500             100               0                 Open   ;
 P_Borewell2_J15      Borewell2            J15                             1259             800             100               0                 Open   ;
 P_Reservoir1_J16     Reservoir1           J16                              492             300             100               0                 Open   ;
 P_Reservoir2_J17     Reservoir2           J17                             1614             200             100               0                 Open   ;
 P_Reservoir3_J18     Reservoir3           J18                              453             400             100               0                 Open   ;
 P_Borewell1_J19      Borewell1            J19                              994             300             100               0                 Open   ;
 P_Borewell2_J20      Borewell2            J20                             1286             300             100               0                 Open   ;
 P_Reservoir1_J21     Reservoir1           J21                             2291            1200             100               0                 Open   ;
 P_Reservoir2_J22     Reservoir2           J22                              504             200             100               0                 Open   ;
 P_Reservoir3_J23     Reservoir3           J23                              612             200             100               0                 Open   ;
 P_Borewell1_J24      Borewell1            J24                             2038             600             100               0                 Open   ;
 P_Borewell2_J25      Borewell2            J25                              346             300             100               0                 Open   ;
 P_Reservoir1_J26     Reservoir1           J26                             2304             500             100               0                 Open   ;
 P_Reservoir2_J27     Reservoir2           J27                             1561             400             100               0                 Open   ;
 P_Reservoir3_J28     Reservoir3           J28                              883            1500             100               0                 Open   ;
 P_Borewell1_J29      Borewell1            J29                             2143             400             100               0                 Open   ;
 P_Borewell2_J30      Borewell2            J30                             1991             400             100               0                 Open   ;
 P_Reservoir1_J31     Reservoir1           J31                             1055             300             100               0                 Open   ;
 P_Reservoir2_J32     Reservoir2           J32                             2063             800             100               0                 Open   ;
 P_Reservoir3_J33     Reservoir3           J33                              755             500             100               0                 Open   ;
 P_Borewell1_J34      Borewell1            J34                             1639             400             100               0                 Open   ;
 P_Borewell2_J35      Borewell2            J35                             1459             800             100               0                 Open   ;
 P_Reservoir1_J36     Reservoir1           J36                             2080             300             100               0                 Open   ;
 P_Reservoir2_J37     Reservoir2           J37                              993             300             100               0                 Open   ;
 P_Reservoir3_J38     Reservoir3           J38                             1176            1000             100               0                 Open   ;
 P_Borewell1_J39      Borewell1            J39                             1992             500             100               0                 Open   ;
 P_Borewell2_J40      Borewell2            J40                             1428            1200             100               0                 Open   ;
 P_Reservoir1_J41     Reservoir1           J41                             1806             500             100               0                 Open   ;
 P_Reservoir2_J42     Reservoir2           J42                             1704            1500             100               0                 Open   ;
 P_Reservoir3_J43     Reservoir3           J43                             1766             800             100               0                 Open   ;
 P_Borewell1_J44      Borewell1            J44                             2258             200             100               0                 Open   ;
 P_Borewell2_J45      Borewell2            J45                             1369            1000             100               0                 Open   ;
 P_Reservoir1_J46     Reservoir1           J46                             1770             300             100               0                 Open   ;
 P_Reservoir2_J47     Reservoir2           J47                             1123             400             100               0                 Open   ;
 P_Reservoir3_J48     Reservoir3           J48                              370             200             100               0                 Open   ;
 P_Borewell1_J49      Borewell1            J49                             1959             200             100               0                 Open   ;
 P_Borewell2_J50      Borewell2            J50                              699            1000             100               0                 Open   ;
 P_Reservoir1_J51     Reservoir1           J51                             2104             800             100               0                 Open   ;
 P_Reservoir2_J52     Reservoir2           J52                             2310             800             100               0                 Open   ;
 P_Reservoir3_J53     Reservoir3           J53                             1747             300             100               0                 Open   ;
 P_Borewell1_J54      Borewell1            J54                              674             300             100               0                 Open   ;
 P_Borewell2_J55      Borewell2            J55                             1041             600             100               0                 Open   ;
 P_Reservoir1_J56     Reservoir1           J56                             1160             300             100               0                 Open   ;
 P_Reservoir2_J57     Reservoir2           J57                              461             500             100               0                 Open   ;
 P_Reservoir3_J58     Reservoir3           J58                             1304             600             100               0                 Open   ;
 P_Borewell1_J59      Borewell1            J59                             1560            1500             100               0                 Open   ;
 P_Borewell2_J60      Borewell2            J60                             1039            1000             100               0                 Open   ;
 P_Reservoir1_J61     Reservoir1           J61                              715             300             100               0                 Open   ;
 P_Reservoir2_J62     Reservoir2           J62                              493            1200             100               0                 Open   ;
 P_Reservoir3_J63     Reservoir3           J63                             1682             400             100               0                 Open   ;
 P_Borewell1_J64      Borewell1            J64                              328            1500             100               0                 Open   ;
 P_Borewell2_J65      Borewell2            J65                             1074             300             100               0                 Open   ;
 P_Reservoir1_J66     Reservoir1           J66                              804            1200             100               0                 Open   ;
 P_Reservoir2_J67     Reservoir2           J67                             1470             200             100               0                 Open   ;
 P_Reservoir3_J68     Reservoir3           J68                             1892             500             100               0                 Open   ;
 P_Borewell1_J69      Borewell1            J69                             2300            1500             100               0                 Open   ;
 P_Borewell2_J70      Borewell2            J70                             1705             300             100               0                 Open   ;
 P_Reservoir1_J71     Reservoir1           J71                             2481             200             100               0                 Open   ;
 P_Reservoir2_J72     Reservoir2           J72                             2420            1500             100               0                 Open   ;
 P_Reservoir3_J73     Reservoir3           J73                             1685             400             100               0                 Open   ;
 P_Borewell1_J74      Borewell1            J74                              813             400             100               0                 Open   ;
 P_Borewell2_J75      Borewell2            J75                             1364             800             100               0                 Open   ;
 P_Reservoir1_J76     Reservoir1           J76                              690             800             100               0                 Open   ;
 P_Reservoir2_J77     Reservoir2           J77                             2482             200             100               0                 Open   ;
 P_Reservoir3_J78     Reservoir3           J78                             1277            1000             100               0                 Open   ;
 P_Borewell1_J79      Borewell1            J79                             1953             300             100               0                 Open   ;
 P_Borewell2_J80      Borewell2            J80                              397             200             100               0                 Open   ;
 P_Reservoir1_J81     Reservoir1           J81                              596             200             100               0                 Open   ;